1
    SWAT Mar 4 2014    VER 2012/Rev 622                                                                  0/ 0/   0      0: 0: 0

    General Input/Output section (file.cio):                                        
    6/23/2017 12:00:00 AM ARCGIS-SWAT interface AV                                  
                                                                                    
         Number of years in run:   35
         Area of watershed:   106124.000 km2
         Random number generator cycles: 0, use default numbers

         Initial random number seed: wet/dry day prob        748932582
         Initial random number seed: radiation              1948832765
         Initial random number seed: precipitation           857034417
         Initial random number seed: 0.5 hr rainfall          67377721
         Initial random number seed: wind speed              366304404
         Initial random number seed: irrigation             1094585182
         Initial random number seed: relative humidity      1767585417
         Initial random number seed: max temperature         608439319
         Initial random number seed: min temperature         592757081

         Precipitation data used in run:
          Multiple gages read for watershed
             Daily rainfall data used

         Temperature data used in run:
          Multiple gages read for watershed

         PET method used: Penman-Monteith

         Rainfall/Runoff/Routing Option:
          Daily rainfall data
          Runoff estimated with curve number method
          Daily stream routing
           Variable Storage routing method
           Channel dimensions remain constant
           Subbasin algae/CBOD loadings not modeled
           In-stream nutrient transformations modeled using QUAL2E equations

         Subbasin Input Summary:
          Sub Latitude  Elev(m) #HRUs Ponds Elevbnds Wetlnd
            1    36.71   781.64    28                   
            2    36.71   678.08    44                   
            3    36.71   136.58   100                   
            4    36.71   471.80    68                   
            5    36.71   473.43    44                   
            6    36.71   544.07    72                   
            7    36.71   134.20    56                   
            8    36.71   941.69    56                   
            9    36.71   731.07    28                   
           10    36.71   518.13    60                   
           11    36.71   408.07    60                   
           12    36.71   586.65    64                   
           13    36.71   696.61    40                   
           14    36.71   149.94    88                   
           15    36.71   351.18    68                   
           16    36.71   340.91    72                   
           17    36.71   282.12    47                   
           18    36.71   510.37    60                   
           19    36.71   333.76    92                   
           20    36.71   277.71   100                   
           21    36.71   488.21    56                   
           22    36.71   314.82    88                   
           23    36.71   980.66    60                   
           24    36.71   431.53   100                   
           25    36.71   178.04    32                   
           26    36.71   416.43    84                   
           27    36.71   792.12    52                   
           28    36.71   349.04    72                   
           29    36.81   221.25    68                   
           30    36.81  1042.15    40                   
           31    36.81   904.58    48                   
           32    36.81   687.37    56                   
           33    36.81   235.85    60                   
           34    36.81   310.77    68                   
           35    36.81   261.36    72                   
           36    36.81   163.81    88                   
           37    36.81   364.18    72                   
           38    36.81   238.58    60                   
           39    36.81   696.39    60                   
           40    36.81   270.88    51                   
           41    36.81   357.54    84                   
           42    36.81   327.49    68                   
           43    36.81   308.38   132                   
           44    36.81   628.33    52                   
           45    36.81   417.77    60                   
           46    36.81   427.47    40                   
           47    36.81   371.37    88                   
           48    36.81   261.10    64                   
           49    36.81   142.44   112                   
           50    36.81   183.89    80                   
           51    36.81   221.14    92                   
           52    36.81   247.98    80                   
           53    36.81   244.93    80                   
           54    36.81   216.12    64                   
           55    36.81   326.22    72                   

         HRU Input Summary Table 1:
          Sub   HRU   Area(ha) Slope SlpLgth(m) Ovrlnd_N CondII_CN TimeConc(hr) ESCO EPCO
            1      1     106.42 0.006     121.95    0.300     59.00        2.250 0.95 1.00
            1      2    9333.64 0.119      60.98    0.300     59.00        1.269 0.95 1.00
            1      3     303.34 0.015     121.95    0.300     59.00        1.732 0.95 1.00
            1      4    1696.65 0.036      91.46    0.300     59.00        1.250 0.95 1.00
            1      5     701.01 0.015     121.95    0.150     69.00        1.190 0.95 1.00
            1      6    3785.46 0.036      91.46    0.150     69.00        1.028 0.95 1.00
            1      7   29029.24 0.142      24.39    0.150     69.00        2.018 0.95 1.00
            1      8     298.59 0.006     121.95    0.150     69.00        1.509 0.95 1.00
            1      9      11.23 0.007     121.95    0.100     77.00        1.107 0.95 1.00
            1     10      37.10 0.015     121.95    0.100     77.00        0.884 0.95 1.00
            1     11   38656.93 0.378       9.15    0.100     77.00        2.384 0.95 1.00
            1     12     232.48 0.037      91.46    0.100     77.00        0.590 0.95 1.00
            1     13   44392.98 0.341       9.15    0.100     66.00        2.684 0.95 1.00
            1     14     629.54 0.036      91.46    0.100     66.00        0.632 0.95 1.00
            1     15     119.10 0.015     121.95    0.100     66.00        0.894 0.95 1.00
            1     16      72.68 0.005     121.95    0.100     66.00        1.232 0.95 1.00
            1     17   28535.24 0.229      15.24    0.100     66.00        1.885 0.95 1.00
            1     18     313.53 0.015     121.95    0.100     66.00        0.913 0.95 1.00
            1     19    1545.60 0.036      91.46    0.100     66.00        0.707 0.95 1.00
            1     20     168.57 0.005     121.95    0.100     66.00        1.242 0.95 1.00
            1     21     105.94 0.006     121.95    0.140     66.00        1.429 0.95 1.00
            1     22    1354.88 0.036      91.46    0.140     66.00        0.819 0.95 1.00
            1     23   10735.08 0.144      24.39    0.140     66.00        0.962 0.95 1.00
            1     24     251.83 0.015     121.95    0.140     66.00        1.104 0.95 1.00
            1     25      69.86 0.006     121.95    0.100     63.29        1.166 0.95 1.00
            1     26    3187.82 0.126      24.39    0.100     63.29        0.437 0.95 1.00
            1     27     703.95 0.036      91.46    0.100     63.29        0.638 0.95 1.00
            1     28     153.66 0.015     121.95    0.100     63.29        0.897 0.95 1.00
            2     29      20.85 0.016     121.95    0.300     72.00        1.673 0.95 1.00
            2     30       9.15 0.005     121.95    0.300     72.00        2.366 0.95 1.00
            2     31      96.60 0.035      91.46    0.300     72.00        1.135 0.95 1.00
            2     32     982.40 0.153      24.39    0.300     72.00        0.521 0.95 1.00
            2     33      48.44 0.006     121.95    0.300     59.00        2.251 0.95 1.00
            2     34     569.24 0.036      91.46    0.300     59.00        1.223 0.95 1.00
            2     35    4690.83 0.151      24.39    0.300     59.00        1.105 0.95 1.00
            2     36     102.25 0.015     121.95    0.300     59.00        1.727 0.95 1.00
            2     37     127.81 0.006     121.95    0.300     72.00        2.270 0.95 1.00
            2     38     199.92 0.015     121.95    0.300     72.00        1.749 0.95 1.00
            2     39     392.44 0.034      91.46    0.300     72.00        1.208 0.95 1.00
            2     40     602.86 0.116      60.98    0.300     72.00        0.737 0.95 1.00
            2     41   27740.40 0.198      18.29    0.150     69.00        3.866 0.95 1.00
            2     42    1723.03 0.036      91.46    0.150     69.00        1.051 0.95 1.00
            2     43     124.46 0.006     121.95    0.150     69.00        1.508 0.95 1.00
            2     44     291.21 0.016     121.95    0.150     69.00        1.168 0.95 1.00
            2     45     405.65 0.037      91.46    0.100     66.00        0.656 0.95 1.00
            2     46      73.15 0.015     121.95    0.100     66.00        0.899 0.95 1.00
            2     47      34.01 0.006     121.95    0.100     66.00        1.168 0.95 1.00
            2     48   47825.15 0.380       9.15    0.100     66.00        6.030 0.95 1.00
            2     49   32993.54 0.296       9.15    0.100     66.00        4.383 0.95 1.00
            2     50      45.94 0.006     121.95    0.100     66.00        1.171 0.95 1.00
            2     51     582.29 0.036      91.46    0.100     66.00        0.695 0.95 1.00
            2     52     101.03 0.015     121.95    0.100     66.00        0.906 0.95 1.00
            2     53      19.76 0.006     121.95    0.100     66.00        1.164 0.95 1.00
            2     54   36105.09 0.362       9.15    0.100     66.00        4.732 0.95 1.00
            2     55     300.31 0.037      91.46    0.100     66.00        0.635 0.95 1.00
            2     56      45.15 0.015     121.95    0.100     66.00        0.892 0.95 1.00
            2     57      70.53 0.015     121.95    0.100     66.00        0.899 0.95 1.00
            2     58      55.22 0.005     121.95    0.100     66.00        1.238 0.95 1.00
            2     59   20428.81 0.354       9.15    0.100     66.00        2.903 0.95 1.00
            2     60     341.78 0.036      91.46    0.100     66.00        0.648 0.95 1.00
            2     61       8.21 0.006     121.95    0.140     77.00        1.419 0.95 1.00
            2     62     152.52 0.037      91.46    0.140     77.00        0.729 0.95 1.00
            2     63      29.48 0.016     121.95    0.140     77.00        1.064 0.95 1.00
            2     64    1907.70 0.186      18.29    0.140     77.00        0.518 0.95 1.00
            2     65    7443.57 0.199      18.29    0.140     66.00        1.329 0.95 1.00
            2     66      39.63 0.006     121.95    0.140     66.00        1.428 0.95 1.00
            2     67     446.69 0.036      91.46    0.140     66.00        0.796 0.95 1.00
            2     68      84.94 0.015     121.95    0.140     66.00        1.099 0.95 1.00
            2     69    1690.83 0.241      15.24    0.140     66.00        0.454 0.95 1.00
            2     70      24.62 0.016     121.95    0.140     66.00        1.063 0.95 1.00
            2     71       8.21 0.006     121.95    0.140     66.00        1.419 0.95 1.00
            2     72      93.42 0.036      91.46    0.140     66.00        0.721 0.95 1.00
            3     73     172.05 0.074      60.98    0.140     77.00        0.476 0.95 1.00
            3     74    1220.50 0.005     121.95    0.140     77.00        1.699 0.95 1.00
            3     75     657.60 0.014     121.95    0.140     77.00        1.216 0.95 1.00
            3     76     625.85 0.030      91.46    0.140     77.00        0.848 0.95 1.00
            3     77    1188.74 0.007     121.95    0.140     77.00        1.551 0.95 1.00
            3     78     412.19 0.067      60.98    0.140     77.00        0.532 0.95 1.00
            3     79    1779.10 0.031      91.46    0.140     77.00        1.011 0.95 1.00
            3     80    1634.91 0.015     121.95    0.140     77.00        1.338 0.95 1.00
            3     81     326.79 0.006     121.95    0.140     77.00        1.480 0.95 1.00
            3     82    1538.27 0.080      60.98    0.140     77.00        0.678 0.95 1.00
            3     83    2042.24 0.034      91.46    0.140     77.00        1.027 0.95 1.00
            3     84     724.28 0.015     121.95    0.140     77.00        1.204 0.95 1.00
            3     85     528.22 0.005     121.95    0.300     59.00        2.460 0.95 1.00
            3     86     171.44 0.030      91.46    0.300     59.00        1.198 0.95 1.00
            3     87      38.80 0.077      60.98    0.300     59.00        0.696 0.95 1.00
            3     88     224.04 0.014     121.95    0.300     59.00        1.781 0.95 1.00
            3     89      51.58 0.079      60.98    0.300     72.00        0.694 0.95 1.00
            3     90     306.26 0.005     121.95    0.300     72.00        2.423 0.95 1.00
            3     91     124.70 0.031      91.46    0.300     72.00        1.178 0.95 1.00
            3     92     169.94 0.014     121.95    0.300     72.00        1.771 0.95 1.00
            3     93     326.29 0.006     121.95    0.300     59.00        2.301 0.95 1.00
            3     94     700.71 0.032      91.46    0.300     59.00        1.264 0.95 1.00
            3     95     183.64 0.068      60.98    0.300     59.00        0.751 0.95 1.00
            3     96     518.55 0.015     121.95    0.300     59.00        1.795 0.95 1.00
            3     97     142.18 0.007     121.95    0.300     59.00        2.167 0.95 1.00
            3     98     265.38 0.015     121.95    0.300     59.00        1.753 0.95 1.00
            3     99     571.98 0.034      91.46    0.300     59.00        1.223 0.95 1.00
            3    100     335.28 0.076      60.98    0.300     59.00        0.755 0.95 1.00
            3    101    4226.47 0.033      91.46    0.150     69.00        1.347 0.95 1.00
            3    102    1689.99 0.006     121.95    0.150     69.00        1.746 0.95 1.00
            3    103    1967.06 0.072      60.98    0.150     69.00        0.771 0.95 1.00
            3    104    2574.83 0.015     121.95    0.150     69.00        1.512 0.95 1.00
            3    105    7135.95 0.035      91.46    0.150     69.00        1.685 0.95 1.00
            3    106     902.23 0.007     121.95    0.150     69.00        1.565 0.95 1.00
            3    107    7998.53 0.081      60.98    0.150     69.00        1.499 0.95 1.00
            3    108    2093.87 0.015     121.95    0.150     69.00        1.447 0.95 1.00
            3    109     733.69 0.030      91.46    0.140     78.00        0.865 0.95 1.00
            3    110     147.20 0.074      60.98    0.140     78.00        0.472 0.95 1.00
            3    111    2521.64 0.005     121.95    0.140     78.00        1.879 0.95 1.00
            3    112    1140.67 0.014     121.95    0.140     78.00        1.290 0.95 1.00
            3    113     587.27 0.066      60.98    0.140     78.00        0.562 0.95 1.00
            3    114    3348.66 0.031      91.46    0.140     78.00        1.220 0.95 1.00
            3    115    3766.88 0.014     121.95    0.140     78.00        1.643 0.95 1.00
            3    116    3071.37 0.006     121.95    0.140     78.00        1.872 0.95 1.00
            3    117    2624.91 0.034      91.46    0.140     78.00        1.105 0.95 1.00
            3    118    1124.59 0.015     121.95    0.140     78.00        1.265 0.95 1.00
            3    119     586.35 0.006     121.95    0.140     78.00        1.523 0.95 1.00
            3    120    1455.35 0.074      60.98    0.140     78.00        0.677 0.95 1.00
            3    121     862.71 0.030      91.46    0.100     59.00        0.751 0.95 1.00
            3    122    2765.98 0.004     121.95    0.100     59.00        1.723 0.95 1.00
            3    123    1115.78 0.014     121.95    0.100     59.00        1.085 0.95 1.00
            3    124     249.94 0.079      60.98    0.100     59.00        0.403 0.95 1.00
            3    125    3093.42 0.006     121.95    0.100     59.00        1.616 0.95 1.00
            3    126     951.15 0.069      60.98    0.100     59.00        0.530 0.95 1.00
            3    127    4224.13 0.031      91.46    0.100     59.00        1.197 0.95 1.00
            3    128    4072.38 0.015     121.95    0.100     59.00        1.462 0.95 1.00
            3    129     803.75 0.007     121.95    0.100     59.00        1.246 0.95 1.00
            3    130    1557.91 0.015     121.95    0.100     59.00        1.131 0.95 1.00
            3    131    2768.27 0.078      60.98    0.100     59.00        0.770 0.95 1.00
            3    132    3634.84 0.034      91.46    0.100     59.00        1.107 0.95 1.00
            3    133    1969.27 0.032      91.46    0.100     66.00        0.898 0.95 1.00
            3    134    2358.46 0.105      60.98    0.100     66.00        0.685 0.95 1.00
            3    135    2022.47 0.014     121.95    0.100     66.00        1.214 0.95 1.00
            3    136    5428.16 0.004     121.95    0.100     66.00        2.057 0.95 1.00
            3    137    1500.07 0.032      91.46    0.100     66.00        0.833 0.95 1.00
            3    138    4634.62 0.004     121.95    0.100     66.00        1.960 0.95 1.00
            3    139    1295.95 0.014     121.95    0.100     66.00        1.112 0.95 1.00
            3    140    1354.86 0.091      60.98    0.100     66.00        0.560 0.95 1.00
            3    141    4405.53 0.083      60.98    0.100     66.00        0.972 0.95 1.00
            3    142    1985.51 0.006     121.95    0.100     66.00        1.468 0.95 1.00
            3    143    2709.35 0.015     121.95    0.100     66.00        1.287 0.95 1.00
            3    144    4582.97 0.034      91.46    0.100     66.00        1.226 0.95 1.00
            3    145   24038.73 0.096      60.98    0.100     66.00        3.091 0.95 1.00
            3    146    9199.53 0.036      91.46    0.100     66.00        1.759 0.95 1.00
            3    147    1987.31 0.015     121.95    0.100     66.00        1.190 0.95 1.00
            3    148     988.20 0.006     121.95    0.100     66.00        1.326 0.95 1.00
            3    149     382.41 0.014     121.95    0.050     66.00        0.666 0.95 1.00
            3    150     189.88 0.028      91.46    0.050     66.00        0.445 0.95 1.00
            3    151      27.32 0.097      60.98    0.050     66.00        0.226 0.95 1.00
            3    152    2749.81 0.003     121.95    0.050     66.00        1.354 0.95 1.00
            3    153     184.09 0.015     121.95    0.050     66.00        0.619 0.95 1.00
            3    154     220.09 0.095      60.98    0.050     66.00        0.265 0.95 1.00
            3    155     218.16 0.032      91.46    0.050     66.00        0.434 0.95 1.00
            3    156     448.77 0.004     121.95    0.050     66.00        0.947 0.95 1.00
            3    157     134.41 0.014     121.95    0.050     77.00        0.622 0.95 1.00
            3    158     118.92 0.078      60.98    0.050     77.00        0.260 0.95 1.00
            3    159     821.89 0.004     121.95    0.050     77.00        1.006 0.95 1.00
            3    160     179.12 0.033      91.46    0.050     77.00        0.423 0.95 1.00
            3    161      68.18 0.091      60.98    0.100     63.29        0.354 0.95 1.00
            3    162      84.26 0.032      91.46    0.100     63.29        0.609 0.95 1.00
            3    163     458.89 0.004     121.95    0.100     63.29        1.393 0.95 1.00
            3    164     137.33 0.014     121.95    0.100     63.29        0.927 0.95 1.00
            3    165     653.41 0.015     121.95    0.100     63.29        0.997 0.95 1.00
            3    166     417.44 0.007     121.95    0.100     63.29        1.184 0.95 1.00
            3    167     297.63 0.073      60.98    0.100     63.29        0.420 0.95 1.00
            3    168     906.07 0.032      91.46    0.100     63.29        0.746 0.95 1.00
            3    169     147.49 0.007     121.95    0.100     63.29        1.137 0.95 1.00
            3    170     727.52 0.077      60.98    0.100     63.29        0.484 0.95 1.00
            3    171     311.65 0.015     121.95    0.100     63.29        0.941 0.95 1.00
            3    172     804.53 0.035      91.46    0.100     63.29        0.715 0.95 1.00
            4    173     685.68 0.037      91.46    0.150     69.00        0.808 0.95 1.00
            4    174    4149.66 0.134      24.39    0.150     69.00        0.647 0.95 1.00
            4    175      36.00 0.006     121.95    0.150     69.00        1.482 0.95 1.00
            4    176     107.05 0.015     121.95    0.150     69.00        1.138 0.95 1.00
            4    177     173.94 0.006     121.95    0.150     79.00        1.502 0.95 1.00
            4    178     693.60 0.034      91.46    0.150     79.00        0.827 0.95 1.00
            4    179    4092.72 0.159      24.39    0.150     79.00        0.631 0.95 1.00
            4    180     247.27 0.015     121.95    0.150     79.00        1.157 0.95 1.00
            4    181      21.57 0.004     121.95    0.100     77.00        1.311 0.95 1.00
            4    182      31.77 0.015     121.95    0.100     77.00        0.885 0.95 1.00
            4    183     151.92 0.037      91.46    0.100     77.00        0.588 0.95 1.00
            4    184    2623.66 0.208      15.24    0.100     77.00        0.400 0.95 1.00
            4    185       8.11 0.006     121.95    0.100     66.00        1.159 0.95 1.00
            4    186      29.55 0.016     121.95    0.100     66.00        0.868 0.95 1.00
            4    187    3218.52 0.210      15.24    0.100     66.00        0.455 0.95 1.00
            4    188     171.14 0.036      91.46    0.100     66.00        0.595 0.95 1.00
            4    189     369.20 0.036      91.46    0.100     77.00        0.620 0.95 1.00
            4    190    7331.94 0.255       9.15    0.100     77.00        0.780 0.95 1.00
            4    191      99.36 0.015     121.95    0.100     77.00        0.895 0.95 1.00
            4    192      89.56 0.005     121.95    0.100     77.00        1.237 0.95 1.00
            4    193       5.62 0.016     121.95    0.100     66.00        0.863 0.95 1.00
            4    194       2.48 0.007     121.95    0.100     66.00        1.105 0.95 1.00
            4    195      35.04 0.038      91.46    0.100     66.00        0.566 0.95 1.00
            4    196    2603.40 0.345       9.15    0.100     66.00        0.356 0.95 1.00
            4    197     288.43 0.037      91.46    0.140     66.00        0.732 0.95 1.00
            4    198    1710.46 0.129      24.39    0.140     66.00        0.411 0.95 1.00
            4    199      49.47 0.015     121.95    0.140     66.00        1.084 0.95 1.00
            4    200      16.35 0.007     121.95    0.140     66.00        1.355 0.95 1.00
            4    201      40.11 0.005     121.95    0.140     77.00        1.503 0.95 1.00
            4    202      52.40 0.015     121.95    0.140     77.00        1.085 0.95 1.00
            4    203     145.05 0.035      91.46    0.140     77.00        0.725 0.95 1.00
            4    204     973.32 0.157      24.39    0.140     77.00        0.322 0.95 1.00
            4    205      12.19 0.015     121.95    0.100     74.86        0.882 0.95 1.00
            4    206     578.85 0.151      24.39    0.100     74.86        0.243 0.95 1.00
            4    207      64.27 0.037      91.46    0.100     74.86        0.575 0.95 1.00
            4    208      12.30 0.004     121.95    0.100     74.86        1.309 0.95 1.00
            4    209      12.07 0.006     121.95    0.100     63.29        1.160 0.95 1.00
            4    210      31.62 0.015     121.95    0.100     63.29        0.885 0.95 1.00
            4    211     149.57 0.036      91.46    0.100     63.29        0.592 0.95 1.00
            4    212    1291.99 0.149      24.39    0.100     63.29        0.321 0.95 1.00
            4    213    1050.79 0.161      18.29    0.100     74.86        0.266 0.95 1.00
            4    214      62.66 0.005     121.95    0.100     74.86        1.233 0.95 1.00
            4    215     189.23 0.035      91.46    0.100     74.86        0.602 0.95 1.00
            4    216      76.80 0.015     121.95    0.100     74.86        0.892 0.95 1.00
            4    217      11.25 0.006     121.95    0.100     73.82        1.159 0.95 1.00
            4    218     206.90 0.036      91.46    0.100     73.82        0.600 0.95 1.00
            4    219    1047.91 0.126      24.39    0.100     73.82        0.304 0.95 1.00
            4    220      40.90 0.016     121.95    0.100     73.82        0.870 0.95 1.00
            4    221      66.70 0.006     121.95    0.100     81.88        1.168 0.95 1.00
            4    222     161.91 0.035      91.46    0.100     81.88        0.599 0.95 1.00
            4    223     669.44 0.143      24.39    0.100     81.88        0.256 0.95 1.00
            4    224      73.06 0.015     121.95    0.100     81.88        0.891 0.95 1.00
            4    225     135.43 0.015     121.95    0.100     73.82        0.900 0.95 1.00
            4    226      76.69 0.006     121.95    0.100     73.82        1.170 0.95 1.00
            4    227     277.00 0.112      60.98    0.100     73.82        0.357 0.95 1.00
            4    228     247.57 0.033      91.46    0.100     73.82        0.620 0.95 1.00
            4    229      49.92 0.035      91.46    0.100     82.40        0.582 0.95 1.00
            4    230     153.22 0.117      60.98    0.100     82.40        0.337 0.95 1.00
            4    231       6.90 0.007     121.95    0.100     82.40        1.106 0.95 1.00
            4    232      14.99 0.015     121.95    0.100     82.40        0.882 0.95 1.00
            4    233      98.12 0.034      91.46    0.100     87.60        0.595 0.95 1.00
            4    234      57.04 0.015     121.95    0.100     87.60        0.889 0.95 1.00
            4    235     248.32 0.131      24.39    0.100     87.60        0.211 0.95 1.00
            4    236      76.99 0.005     121.95    0.100     87.60        1.235 0.95 1.00
            4    237      82.70 0.015     121.95    0.100     82.40        0.893 0.95 1.00
            4    238      62.54 0.006     121.95    0.100     82.40        1.168 0.95 1.00
            4    239      95.43 0.103      60.98    0.100     82.40        0.341 0.95 1.00
            4    240     125.50 0.032      91.46    0.100     82.40        0.609 0.95 1.00
            5    241    2154.86 0.152      24.39    0.150     79.00        0.540 0.95 1.00
            5    242      34.11 0.016     121.95    0.150     79.00        1.108 0.95 1.00
            5    243     221.15 0.037      91.46    0.150     79.00        0.764 0.95 1.00
            5    244      12.83 0.007     121.95    0.150     79.00        1.413 0.95 1.00
            5    245     107.15 0.015     121.95    0.150     69.00        1.145 0.95 1.00
            5    246    3343.83 0.131      24.39    0.150     69.00        0.702 0.95 1.00
            5    247      43.95 0.006     121.95    0.150     69.00        1.487 0.95 1.00
            5    248     562.08 0.036      91.46    0.150     69.00        0.826 0.95 1.00
            5    249    2308.09 0.218      15.24    0.100     77.00        0.460 0.95 1.00
            5    250     102.71 0.037      91.46    0.100     77.00        0.587 0.95 1.00
            5    251       9.88 0.005     121.95    0.100     77.00        1.225 0.95 1.00
            5    252      17.31 0.015     121.95    0.100     77.00        0.884 0.95 1.00
            5    253    2148.14 0.192      18.29    0.100     66.00        0.457 0.95 1.00
            5    254      15.61 0.006     121.95    0.100     66.00        1.161 0.95 1.00
            5    255      34.84 0.015     121.95    0.100     66.00        0.888 0.95 1.00
            5    256     166.86 0.037      91.46    0.100     66.00        0.599 0.95 1.00
            5    257       1.59 0.015     121.95    0.100     77.00        0.880 0.95 1.00
            5    258     568.66 0.248      15.24    0.100     77.00        0.211 0.95 1.00
            5    259       1.06 0.005     121.95    0.100     77.00        1.222 0.95 1.00
            5    260      12.11 0.037      91.46    0.100     77.00        0.568 0.95 1.00
            5    261      78.55 0.036      91.46    0.140     77.00        0.714 0.95 1.00
            5    262     715.70 0.143      24.39    0.140     77.00        0.333 0.95 1.00
            5    263      14.03 0.015     121.95    0.140     77.00        1.080 0.95 1.00
            5    264       5.09 0.007     121.95    0.140     77.00        1.354 0.95 1.00
            5    265      39.28 0.016     121.95    0.140     66.00        1.065 0.95 1.00
            5    266      13.40 0.007     121.95    0.140     66.00        1.356 0.95 1.00
            5    267     202.31 0.037      91.46    0.140     66.00        0.732 0.95 1.00
            5    268    1005.29 0.124      24.39    0.140     66.00        0.385 0.95 1.00
            5    269     547.04 0.139      24.39    0.100     74.86        0.270 0.95 1.00
            5    270      11.93 0.016     121.95    0.100     74.86        0.866 0.95 1.00
            5    271       4.16 0.006     121.95    0.100     74.86        1.158 0.95 1.00
            5    272      66.00 0.037      91.46    0.100     74.86        0.580 0.95 1.00
            5    273     148.20 0.036      91.46    0.100     63.29        0.600 0.95 1.00
            5    274      17.84 0.006     121.95    0.100     63.29        1.162 0.95 1.00
            5    275     771.97 0.129      24.39    0.100     63.29        0.308 0.95 1.00
            5    276      30.10 0.015     121.95    0.100     63.29        0.887 0.95 1.00
            5    277     228.23 0.130      24.39    0.100     81.88        0.221 0.95 1.00
            5    278       6.22 0.016     121.95    0.100     81.88        0.864 0.95 1.00
            5    279      33.77 0.036      91.46    0.100     81.88        0.577 0.95 1.00
            5    280       2.68 0.005     121.95    0.100     81.88        1.223 0.95 1.00
            5    281       8.68 0.006     121.95    0.100     73.82        1.160 0.95 1.00
            5    282      19.51 0.015     121.95    0.100     73.82        0.884 0.95 1.00
            5    283     407.48 0.115      60.98    0.100     73.82        0.391 0.95 1.00
            5    284      94.77 0.036      91.46    0.100     73.82        0.590 0.95 1.00
            6    285      52.19 0.006     121.95    0.150     79.00        1.487 0.95 1.00
            6    286     882.75 0.036      91.46    0.150     79.00        0.862 0.95 1.00
            6    287    5047.86 0.129      24.39    0.150     79.00        0.850 0.95 1.00
            6    288     166.26 0.016     121.95    0.150     79.00        1.131 0.95 1.00
            6    289    1033.92 0.036      91.46    0.150     69.00        0.882 0.95 1.00
            6    290     191.42 0.016     121.95    0.150     69.00        1.135 0.95 1.00
            6    291      81.88 0.007     121.95    0.150     69.00        1.426 0.95 1.00
            6    292    5351.71 0.121      24.39    0.150     69.00        0.887 0.95 1.00
            6    293    2479.47 0.168      18.29    0.150     79.00        0.510 0.95 1.00
            6    294     453.01 0.036      91.46    0.150     79.00        0.801 0.95 1.00
            6    295      95.21 0.015     121.95    0.150     79.00        1.140 0.95 1.00
            6    296      53.58 0.005     121.95    0.150     79.00        1.570 0.95 1.00
            6    297     685.17 0.037      91.46    0.150     69.00        0.829 0.95 1.00
            6    298    5722.84 0.146      24.39    0.150     69.00        0.914 0.95 1.00
            6    299      54.20 0.006     121.95    0.150     69.00        1.488 0.95 1.00
            6    300     118.47 0.015     121.95    0.150     69.00        1.145 0.95 1.00
            6    301      77.42 0.004     121.95    0.100     77.00        1.323 0.95 1.00
            6    302      92.55 0.015     121.95    0.100     77.00        0.898 0.95 1.00
            6    303     454.45 0.037      91.46    0.100     77.00        0.640 0.95 1.00
            6    304   19800.10 0.351       9.15    0.100     77.00        2.142 0.95 1.00
            6    305    6761.30 0.349       9.15    0.100     77.00        0.881 0.95 1.00
            6    306       5.64 0.016     121.95    0.100     77.00        0.864 0.95 1.00
            6    307       1.33 0.007     121.95    0.100     77.00        1.105 0.95 1.00
            6    308      58.44 0.038      91.46    0.100     77.00        0.572 0.95 1.00
            6    309      75.64 0.015     121.95    0.100     66.00        0.895 0.95 1.00
            6    310     388.75 0.037      91.46    0.100     66.00        0.631 0.95 1.00
            6    311      38.71 0.005     121.95    0.100     66.00        1.231 0.95 1.00
            6    312    7126.61 0.212      15.24    0.100     66.00        0.961 0.95 1.00
            6    313    1568.89 0.125      24.39    0.140     77.00        0.442 0.95 1.00
            6    314     280.91 0.036      91.46    0.140     77.00        0.746 0.95 1.00
            6    315      16.45 0.006     121.95    0.140     77.00        1.420 0.95 1.00
            6    316      46.65 0.015     121.95    0.140     77.00        1.086 0.95 1.00
            6    317      25.95 0.006     121.95    0.140     66.00        1.422 0.95 1.00
            6    318      68.95 0.015     121.95    0.140     66.00        1.090 0.95 1.00
            6    319     406.39 0.037      91.46    0.140     66.00        0.759 0.95 1.00
            6    320    2030.46 0.121      24.39    0.140     66.00        0.501 0.95 1.00
            6    321     127.79 0.036      91.46    0.140     77.00        0.721 0.95 1.00
            6    322     785.60 0.153      24.39    0.140     77.00        0.327 0.95 1.00
            6    323      23.76 0.005     121.95    0.140     77.00        1.501 0.95 1.00
            6    324      30.09 0.015     121.95    0.140     77.00        1.083 0.95 1.00
            6    325      16.45 0.006     121.95    0.140     66.00        1.420 0.95 1.00
            6    326      34.84 0.015     121.95    0.140     66.00        1.084 0.95 1.00
            6    327     188.57 0.037      91.46    0.140     66.00        0.726 0.95 1.00
            6    328    1778.66 0.144      24.39    0.140     66.00        0.459 0.95 1.00
            6    329      21.29 0.015     121.95    0.100     63.29        0.884 0.95 1.00
            6    330      12.04 0.005     121.95    0.100     63.29        1.225 0.95 1.00
            6    331     656.43 0.120      24.39    0.100     63.29        0.284 0.95 1.00
            6    332     119.68 0.037      91.46    0.100     63.29        0.588 0.95 1.00
            6    333     538.21 0.228      15.24    0.100     74.86        0.200 0.95 1.00
            6    334      11.31 0.015     121.95    0.100     74.86        0.882 0.95 1.00
            6    335      55.22 0.036      91.46    0.100     74.86        0.581 0.95 1.00
            6    336       8.63 0.006     121.95    0.100     74.86        1.159 0.95 1.00
            6    337     269.29 0.036      91.46    0.100     63.29        0.617 0.95 1.00
            6    338    1251.21 0.124      24.39    0.100     63.29        0.362 0.95 1.00
            6    339      18.00 0.006     121.95    0.100     63.29        1.162 0.95 1.00
            6    340      54.73 0.015     121.95    0.100     63.29        0.891 0.95 1.00
            6    341      25.42 0.006     121.95    0.100     63.29        1.163 0.95 1.00
            6    342      68.12 0.015     121.95    0.100     63.29        0.893 0.95 1.00
            6    343     351.14 0.036      91.46    0.100     63.29        0.630 0.95 1.00
            6    344    1769.72 0.126      24.39    0.100     63.29        0.427 0.95 1.00
            6    345      12.64 0.015     121.95    0.100     73.82        0.882 0.95 1.00
            6    346       7.87 0.005     121.95    0.100     73.82        1.224 0.95 1.00
            6    347     364.95 0.109      60.98    0.100     73.82        0.383 0.95 1.00
            6    348      94.30 0.037      91.46    0.100     73.82        0.583 0.95 1.00
            6    349      56.63 0.015     121.95    0.100     73.82        0.891 0.95 1.00
            6    350     285.87 0.036      91.46    0.100     73.82        0.620 0.95 1.00
            6    351     835.30 0.105      60.98    0.100     73.82        0.453 0.95 1.00
            6    352      25.28 0.006     121.95    0.100     73.82        1.163 0.95 1.00
            6    353    1058.34 0.112      60.98    0.100     73.82        0.477 0.95 1.00
            6    354      28.25 0.006     121.95    0.100     73.82        1.164 0.95 1.00
            6    355     303.41 0.036      91.46    0.100     73.82        0.622 0.95 1.00
            6    356      57.79 0.015     121.95    0.100     73.82        0.891 0.95 1.00
            7    357     244.87 0.006     121.95    0.150     69.00        1.535 0.95 1.00
            7    358     410.23 0.015     121.95    0.150     69.00        1.215 0.95 1.00
            7    359     476.33 0.079      60.98    0.150     69.00        0.556 0.95 1.00
            7    360     774.06 0.033      91.46    0.150     69.00        0.908 0.95 1.00
            7    361     404.93 0.007     121.95    0.150     69.00        1.502 0.95 1.00
            7    362     893.91 0.015     121.95    0.150     69.00        1.306 0.95 1.00
            7    363    3976.02 0.086      60.98    0.150     69.00        1.121 0.95 1.00
            7    364    2866.69 0.035      91.46    0.150     69.00        1.244 0.95 1.00
            7    365     142.41 0.069      60.98    0.140     78.00        0.486 0.95 1.00
            7    366     715.25 0.031      91.46    0.140     78.00        0.880 0.95 1.00
            7    367     738.10 0.015     121.95    0.140     78.00        1.232 0.95 1.00
            7    368     604.26 0.006     121.95    0.140     78.00        1.547 0.95 1.00
            7    369     532.68 0.077      60.98    0.140     78.00        0.552 0.95 1.00
            7    370     391.31 0.015     121.95    0.140     78.00        1.165 0.95 1.00
            7    371     189.49 0.007     121.95    0.140     78.00        1.399 0.95 1.00
            7    372     780.51 0.033      91.46    0.140     78.00        0.879 0.95 1.00
            7    373     369.53 0.006     121.95    0.100     59.00        1.242 0.95 1.00
            7    374     171.61 0.073      60.98    0.100     59.00        0.404 0.95 1.00
            7    375     630.06 0.032      91.46    0.100     59.00        0.725 0.95 1.00
            7    376     496.13 0.015     121.95    0.100     59.00        0.989 0.95 1.00
            7    377     429.37 0.015     121.95    0.100     59.00        0.976 0.95 1.00
            7    378     200.14 0.006     121.95    0.100     59.00        1.207 0.95 1.00
            7    379    1123.83 0.034      91.46    0.100     59.00        0.805 0.95 1.00
            7    380     974.24 0.082      60.98    0.100     59.00        0.548 0.95 1.00
            7    381     807.05 0.006     121.95    0.100     66.00        1.326 0.95 1.00
            7    382   32490.81 0.107      60.98    0.100     66.00        4.612 0.95 1.00
            7    383    8140.26 0.036      91.46    0.100     66.00        1.847 0.95 1.00
            7    384    1793.10 0.015     121.95    0.100     66.00        1.219 0.95 1.00
            7    385     115.94 0.006     121.95    0.100     77.00        1.188 0.95 1.00
            7    386     331.19 0.015     121.95    0.100     77.00        0.957 0.95 1.00
            7    387    1721.13 0.036      91.46    0.100     77.00        0.897 0.95 1.00
            7    388   13838.15 0.138      24.39    0.100     77.00        2.205 0.95 1.00
            7    389     434.88 0.015     121.95    0.100     66.00        0.977 0.95 1.00
            7    390    1898.72 0.036      91.46    0.100     66.00        0.926 0.95 1.00
            7    391   16298.56 0.147      24.39    0.100     66.00        2.515 0.95 1.00
            7    392     149.92 0.007     121.95    0.100     66.00        1.144 0.95 1.00
            7    393      51.18 0.099      60.98    0.050     66.00        0.232 0.95 1.00
            7    394     997.85 0.004     121.95    0.050     66.00        1.066 0.95 1.00
            7    395     182.66 0.014     121.95    0.050     66.00        0.638 0.95 1.00
            7    396     105.19 0.031      91.46    0.050     66.00        0.421 0.95 1.00
            7    397     106.77 0.006     121.95    0.050     66.00        0.792 0.95 1.00
            7    398     165.37 0.015     121.95    0.050     66.00        0.622 0.95 1.00
            7    399     276.91 0.098      60.98    0.050     66.00        0.284 0.95 1.00
            7    400     274.43 0.033      91.46    0.050     66.00        0.451 0.95 1.00
            7    401     295.27 0.114      60.98    0.050     66.00        0.278 0.95 1.00
            7    402      28.06 0.006     121.95    0.050     66.00        0.772 0.95 1.00
            7    403     149.31 0.034      91.46    0.050     66.00        0.420 0.95 1.00
            7    404      47.13 0.015     121.95    0.050     66.00        0.594 0.95 1.00
            7    405     501.32 0.113      60.98    0.010     92.00        0.191 0.95 1.00
            7    406   20133.98 0.000     121.95    0.010     92.00        3.815 0.95 1.00
            7    407     435.04 0.032      91.46    0.010     92.00        0.247 0.95 1.00
            7    408     390.93 0.014     121.95    0.010     92.00        0.315 0.95 1.00
            7    409      62.46 0.116      60.98    0.010     92.00        0.097 0.95 1.00
            7    410    3877.33 0.000     121.95    0.010     92.00        1.661 0.95 1.00
            7    411      78.44 0.033      91.46    0.010     92.00        0.169 0.95 1.00
            7    412      59.87 0.014     121.95    0.010     92.00        0.243 0.95 1.00
            8    413      75.69 0.006     121.95    0.300     59.00        2.243 0.95 1.00
            8    414      68.06 0.015     121.95    0.300     59.00        1.704 0.95 1.00
            8    415     155.79 0.034      91.46    0.300     59.00        1.129 0.95 1.00
            8    416    1175.44 0.210      15.24    0.300     59.00        0.285 0.95 1.00
            8    417      28.12 0.037      91.46    0.300     59.00        1.093 0.95 1.00
            8    418     702.93 0.209      15.24    0.300     59.00        0.262 0.95 1.00
            8    419       5.75 0.015     121.95    0.300     59.00        1.700 0.95 1.00
            8    420       2.10 0.008     121.95    0.300     59.00        2.052 0.95 1.00
            8    421      16.11 0.007     121.95    0.300     59.00        2.137 0.95 1.00
            8    422      45.17 0.015     121.95    0.300     59.00        1.703 0.95 1.00
            8    423     122.54 0.035      91.46    0.300     59.00        1.118 0.95 1.00
            8    424    1521.40 0.209      15.24    0.300     59.00        0.302 0.95 1.00
            8    425     373.19 0.033      91.46    0.150     79.00        0.768 0.95 1.00
            8    426     173.94 0.015     121.95    0.150     79.00        1.133 0.95 1.00
            8    427      71.96 0.007     121.95    0.150     79.00        1.415 0.95 1.00
            8    428     927.97 0.163      18.29    0.150     79.00        0.228 0.95 1.00
            8    429    2204.21 0.181      18.29    0.150     84.00        0.281 0.95 1.00
            8    430     192.51 0.037      91.46    0.150     84.00        0.733 0.95 1.00
            8    431      10.29 0.005     121.95    0.150     84.00        1.560 0.95 1.00
            8    432      24.28 0.016     121.95    0.150     84.00        1.102 0.95 1.00
            8    433      25.69 0.006     121.95    0.150     69.00        1.478 0.95 1.00
            8    434     325.90 0.036      91.46    0.150     69.00        0.746 0.95 1.00
            8    435    1822.49 0.163      18.29    0.150     69.00        0.270 0.95 1.00
            8    436      77.56 0.016     121.95    0.150     69.00        1.105 0.95 1.00
            8    437      29.62 0.037      91.46    0.150     69.00        0.722 0.95 1.00
            8    438     917.41 0.243      15.24    0.150     69.00        0.191 0.95 1.00
            8    439       3.31 0.015     121.95    0.150     69.00        1.121 0.95 1.00
            8    440       1.39 0.006     121.95    0.150     69.00        1.476 0.95 1.00
            8    441     180.60 0.015     121.95    0.100     66.00        0.891 0.95 1.00
            8    442      70.80 0.006     121.95    0.100     66.00        1.163 0.95 1.00
            8    443     760.79 0.036      91.46    0.100     66.00        0.613 0.95 1.00
            8    444   45037.19 0.315       9.15    0.100     66.00        1.631 0.95 1.00
            8    445      45.15 0.015     121.95    0.100     77.00        0.883 0.95 1.00
            8    446   30450.03 0.399       9.15    0.100     77.00        1.174 0.95 1.00
            8    447     196.42 0.036      91.46    0.100     77.00        0.582 0.95 1.00
            8    448      27.95 0.006     121.95    0.100     77.00        1.159 0.95 1.00
            8    449      36.85 0.016     121.95    0.100     66.00        0.865 0.95 1.00
            8    450      17.51 0.005     121.95    0.100     66.00        1.224 0.95 1.00
            8    451   26907.63 0.355       9.15    0.100     66.00        1.064 0.95 1.00
            8    452     251.71 0.037      91.46    0.100     66.00        0.581 0.95 1.00
            8    453      45.04 0.014     121.95    0.010     92.00        0.229 0.95 1.00
            8    454      99.49 0.206      15.24    0.010     92.00        0.036 0.95 1.00
            8    455     190.84 0.002     121.95    0.010     92.00        0.417 0.95 1.00
            8    456      61.21 0.032      91.46    0.010     92.00        0.153 0.95 1.00
            8    457      87.22 0.164      18.29    0.010     92.00        0.041 0.95 1.00
            8    458     113.70 0.031      91.46    0.010     92.00        0.158 0.95 1.00
            8    459     109.92 0.014     121.95    0.010     92.00        0.233 0.95 1.00
            8    460    1830.24 0.001     121.95    0.010     92.00        0.592 0.95 1.00
            8    461      28.96 0.037      91.46    0.100     63.29        0.567 0.95 1.00
            8    462     737.61 0.235      15.24    0.100     63.29        0.153 0.95 1.00
            8    463       1.73 0.007     121.95    0.100     63.29        1.105 0.95 1.00
            8    464       4.34 0.016     121.95    0.100     63.29        0.863 0.95 1.00
            8    465      69.02 0.015     121.95    0.100     63.29        0.884 0.95 1.00
            8    466     197.53 0.035      91.46    0.100     63.29        0.587 0.95 1.00
            8    467      35.04 0.007     121.95    0.100     63.29        1.108 0.95 1.00
            8    468    2851.56 0.237      15.24    0.100     63.29        0.249 0.95 1.00
            9    469   15393.25 0.130      24.39    0.150     69.00        1.058 0.95 1.00
            9    470     146.71 0.006     121.95    0.150     69.00        1.490 0.95 1.00
            9    471    2554.30 0.037      91.46    0.150     69.00        0.893 0.95 1.00
            9    472     412.93 0.016     121.95    0.150     69.00        1.135 0.95 1.00
            9    473   10397.43 0.209      15.24    0.100     66.00        0.707 0.95 1.00
            9    474      91.86 0.016     121.95    0.100     66.00        0.872 0.95 1.00
            9    475     589.40 0.037      91.46    0.100     66.00        0.612 0.95 1.00
            9    476      37.88 0.006     121.95    0.100     66.00        1.161 0.95 1.00
            9    477       5.96 0.007     121.95    0.100     77.00        1.106 0.95 1.00
            9    478      17.74 0.016     121.95    0.100     77.00        0.864 0.95 1.00
            9    479     143.17 0.038      91.46    0.100     77.00        0.574 0.95 1.00
            9    480   28060.72 0.409       9.15    0.100     77.00        1.481 0.95 1.00
            9    481     368.82 0.037      91.46    0.100     66.00        0.596 0.95 1.00
            9    482      21.16 0.006     121.95    0.100     66.00        1.160 0.95 1.00
            9    483   29816.88 0.327       9.15    0.100     66.00        1.563 0.95 1.00
            9    484      57.01 0.015     121.95    0.100     66.00        0.885 0.95 1.00
            9    485    3702.71 0.129      24.39    0.140     66.00        0.455 0.95 1.00
            9    486     111.25 0.016     121.95    0.140     66.00        1.066 0.95 1.00
            9    487      38.91 0.007     121.95    0.140     66.00        1.356 0.95 1.00
            9    488     647.45 0.036      91.46    0.140     66.00        0.748 0.95 1.00
            9    489     221.94 0.016     121.95    0.100     63.29        0.883 0.95 1.00
            9    490    5508.66 0.127      24.39    0.100     63.29        0.516 0.95 1.00
            9    491    1190.74 0.036      91.46    0.100     63.29        0.658 0.95 1.00
            9    492      91.69 0.006     121.95    0.100     63.29        1.166 0.95 1.00
            9    493     200.69 0.016     121.95    0.100     73.82        0.881 0.95 1.00
            9    494    1092.85 0.036      91.46    0.100     73.82        0.651 0.95 1.00
            9    495    3283.09 0.108      60.98    0.100     73.82        0.537 0.95 1.00
            9    496      84.84 0.006     121.95    0.100     73.82        1.166 0.95 1.00
           10    497    3095.32 0.134      24.39    0.300     72.00        0.905 0.95 1.00
           10    498     685.60 0.037      91.46    0.300     72.00        1.243 0.95 1.00
           10    499     119.05 0.015     121.95    0.300     72.00        1.732 0.95 1.00
           10    500      43.23 0.006     121.95    0.300     72.00        2.250 0.95 1.00
           10    501     112.47 0.006     121.95    0.300     59.00        2.268 0.95 1.00
           10    502    1119.85 0.036      91.46    0.300     59.00        1.334 0.95 1.00
           10    503    7891.64 0.149      24.39    0.300     59.00        1.617 0.95 1.00
           10    504     246.68 0.015     121.95    0.300     59.00        1.761 0.95 1.00
           10    505     175.84 0.015     121.95    0.150     69.00        1.167 0.95 1.00
           10    506    1061.15 0.037      91.46    0.150     69.00        0.943 0.95 1.00
           10    507   19019.78 0.185      18.29    0.150     69.00        2.959 0.95 1.00
           10    508      81.99 0.006     121.95    0.150     69.00        1.499 0.95 1.00
           10    509     494.68 0.015     121.95    0.150     79.00        1.236 0.95 1.00
           10    510    1578.18 0.035      91.46    0.150     79.00        1.048 0.95 1.00
           10    511    5842.46 0.139      24.39    0.150     79.00        1.212 0.95 1.00
           10    512     329.03 0.006     121.95    0.150     79.00        1.556 0.95 1.00
           10    513     142.56 0.006     121.95    0.150     69.00        1.514 0.95 1.00
           10    514     300.71 0.015     121.95    0.150     69.00        1.195 0.95 1.00
           10    515    1195.48 0.036      91.46    0.150     69.00        0.973 0.95 1.00
           10    516   12351.06 0.177      18.29    0.150     69.00        2.083 0.95 1.00
           10    517      29.99 0.006     121.95    0.150     79.00        1.486 0.95 1.00
           10    518    9780.38 0.294       9.15    0.150     79.00        1.656 0.95 1.00
           10    519      65.80 0.015     121.95    0.150     79.00        1.141 0.95 1.00
           10    520     339.52 0.037      91.46    0.150     79.00        0.802 0.95 1.00
           10    521      50.79 0.005     121.95    0.100     66.00        1.238 0.95 1.00
           10    522   47795.17 0.297       9.15    0.100     66.00        6.323 0.95 1.00
           10    523     110.60 0.015     121.95    0.100     66.00        0.910 0.95 1.00
           10    524     694.19 0.037      91.46    0.100     66.00        0.718 0.95 1.00
           10    525     188.96 0.015     121.95    0.100     66.00        0.928 0.95 1.00
           10    526      82.77 0.006     121.95    0.100     66.00        1.181 0.95 1.00
           10    527   25155.87 0.246      15.24    0.100     66.00        3.672 0.95 1.00
           10    528     996.26 0.036      91.46    0.100     66.00        0.780 0.95 1.00
           10    529   80201.02 0.360       9.15    0.100     77.00        9.898 0.95 1.00
           10    530     973.61 0.037      91.46    0.100     77.00        0.771 0.95 1.00
           10    531      74.94 0.006     121.95    0.100     77.00        1.179 0.95 1.00
           10    532     179.77 0.016     121.95    0.100     77.00        0.909 0.95 1.00
           10    533      76.29 0.016     121.95    0.140     66.00        1.077 0.95 1.00
           10    534      40.28 0.005     121.95    0.140     66.00        1.508 0.95 1.00
           10    535    8013.59 0.183      18.29    0.140     66.00        1.472 0.95 1.00
           10    536     448.08 0.037      91.46    0.140     66.00        0.795 0.95 1.00
           10    537    2541.82 0.137      24.39    0.140     77.00        0.690 0.95 1.00
           10    538      95.77 0.006     121.95    0.140     77.00        1.443 0.95 1.00
           10    539     211.65 0.015     121.95    0.140     77.00        1.130 0.95 1.00
           10    540     739.27 0.035      91.46    0.140     77.00        0.865 0.95 1.00
           10    541    4728.92 0.184      18.29    0.140     66.00        0.988 0.95 1.00
           10    542     343.11 0.036      91.46    0.140     66.00        0.779 0.95 1.00
           10    543      40.80 0.006     121.95    0.140     66.00        1.429 0.95 1.00
           10    544      87.39 0.015     121.95    0.140     66.00        1.101 0.95 1.00
           10    545       4.59 0.006     121.95    0.100     63.29        1.159 0.95 1.00
           10    546      11.59 0.016     121.95    0.100     63.29        0.866 0.95 1.00
           10    547      62.02 0.037      91.46    0.100     63.29        0.583 0.95 1.00
           10    548    1575.11 0.217      15.24    0.100     63.29        0.429 0.95 1.00
           10    549     179.62 0.035      91.46    0.100     63.29        0.621 0.95 1.00
           10    550    1033.84 0.198      18.29    0.100     63.29        0.348 0.95 1.00
           10    551      47.45 0.015     121.95    0.100     63.29        0.894 0.95 1.00
           10    552      27.63 0.005     121.95    0.100     63.29        1.231 0.95 1.00
           10    553      21.57 0.016     121.95    0.100     74.86        0.869 0.95 1.00
           10    554       9.97 0.007     121.95    0.100     74.86        1.108 0.95 1.00
           10    555     122.71 0.036      91.46    0.100     74.86        0.603 0.95 1.00
           10    556    2533.84 0.279       9.15    0.100     74.86        0.555 0.95 1.00
           11    557     342.12 0.016     121.95    0.150     69.00        1.152 0.95 1.00
           11    558     172.86 0.006     121.95    0.150     69.00        1.505 0.95 1.00
           11    559   13253.60 0.128      24.39    0.150     69.00        1.509 0.95 1.00
           11    560    1981.64 0.036      91.46    0.150     69.00        0.969 0.95 1.00
           11    561     266.48 0.006     121.95    0.150     69.00        1.518 0.95 1.00
           11    562     590.64 0.015     121.95    0.150     69.00        1.206 0.95 1.00
           11    563    3168.19 0.036      91.46    0.150     69.00        1.093 0.95 1.00
           11    564   15336.98 0.124      24.39    0.150     69.00        1.687 0.95 1.00
           11    565     451.07 0.006     121.95    0.150     79.00        1.542 0.95 1.00
           11    566    7578.00 0.134      24.39    0.150     79.00        1.009 0.95 1.00
           11    567     706.38 0.015     121.95    0.150     79.00        1.220 0.95 1.00
           11    568    2266.83 0.035      91.46    0.150     79.00        1.006 0.95 1.00
           11    569     138.12 0.015     121.95    0.100     66.00        0.903 0.95 1.00
           11    570   56044.00 0.346       9.15    0.100     66.00        4.610 0.95 1.00
           11    571      69.94 0.005     121.95    0.100     66.00        1.235 0.95 1.00
           11    572     757.84 0.037      91.46    0.100     66.00        0.669 0.95 1.00
           11    573     944.64 0.036      91.46    0.100     77.00        0.696 0.95 1.00
           11    574     215.14 0.015     121.95    0.100     77.00        0.914 0.95 1.00
           11    575     139.21 0.005     121.95    0.100     77.00        1.246 0.95 1.00
           11    576   27477.31 0.299       9.15    0.100     77.00        2.508 0.95 1.00
           11    577      45.45 0.006     121.95    0.140     66.00        1.425 0.95 1.00
           11    578      95.67 0.015     121.95    0.140     66.00        1.093 0.95 1.00
           11    579    4372.51 0.129      24.39    0.140     66.00        0.702 0.95 1.00
           11    580     590.11 0.036      91.46    0.140     66.00        0.780 0.95 1.00
           11    581     118.02 0.006     121.95    0.140     66.00        1.436 0.95 1.00
           11    582     217.72 0.015     121.95    0.140     66.00        1.111 0.95 1.00
           11    583    1114.98 0.036      91.46    0.140     66.00        0.843 0.95 1.00
           11    584    5254.76 0.130      24.39    0.140     66.00        0.786 0.95 1.00
           11    585    2620.87 0.136      24.39    0.140     77.00        0.523 0.95 1.00
           11    586     151.92 0.005     121.95    0.140     77.00        1.521 0.95 1.00
           11    587     210.38 0.015     121.95    0.140     77.00        1.110 0.95 1.00
           11    588     747.35 0.035      91.46    0.140     77.00        0.806 0.95 1.00
           11    589     404.25 0.014     121.95    0.010     92.00        0.286 0.95 1.00
           11    590    9506.21 0.001     121.95    0.010     92.00        1.458 0.95 1.00
           11    591     206.77 0.122      24.39    0.010     92.00        0.079 0.95 1.00
           11    592     392.49 0.031      91.46    0.010     92.00        0.209 0.95 1.00
           11    593     126.37 0.016     121.95    0.100     63.29        0.884 0.95 1.00
           11    594      53.62 0.006     121.95    0.100     63.29        1.167 0.95 1.00
           11    595     659.81 0.036      91.46    0.100     63.29        0.662 0.95 1.00
           11    596    2955.04 0.118      60.98    0.100     63.29        0.658 0.95 1.00
           11    597      49.74 0.006     121.95    0.100     63.29        1.167 0.95 1.00
           11    598     761.23 0.092      60.98    0.100     63.29        0.442 0.95 1.00
           11    599     403.72 0.035      91.46    0.100     63.29        0.634 0.95 1.00
           11    600     105.84 0.015     121.95    0.100     63.29        0.898 0.95 1.00
           11    601      24.08 0.006     121.95    0.100     63.29        1.162 0.95 1.00
           11    602    1667.25 0.120      60.98    0.100     63.29        0.520 0.95 1.00
           11    603     364.43 0.037      91.46    0.100     63.29        0.619 0.95 1.00
           11    604      51.87 0.015     121.95    0.100     63.29        0.889 0.95 1.00
           11    605      38.47 0.006     121.95    0.100     73.82        1.165 0.95 1.00
           11    606     477.39 0.036      91.46    0.100     73.82        0.639 0.95 1.00
           11    607      92.31 0.015     121.95    0.100     73.82        0.896 0.95 1.00
           11    608    1566.10 0.109      60.98    0.100     73.82        0.518 0.95 1.00
           11    609      76.30 0.015     121.95    0.100     73.82        0.893 0.95 1.00
           11    610     361.54 0.035      91.46    0.100     73.82        0.629 0.95 1.00
           11    611     582.10 0.086      60.98    0.100     73.82        0.427 0.95 1.00
           11    612      44.12 0.006     121.95    0.100     73.82        1.166 0.95 1.00
           11    613      35.96 0.015     121.95    0.100     73.82        0.886 0.95 1.00
           11    614      14.44 0.006     121.95    0.100     73.82        1.160 0.95 1.00
           11    615     852.43 0.109      60.98    0.100     73.82        0.436 0.95 1.00
           11    616     193.26 0.037      91.46    0.100     73.82        0.596 0.95 1.00
           12    617    9772.67 0.157      24.39    0.300     59.00        1.494 0.95 1.00
           12    618    1291.47 0.036      91.46    0.300     59.00        1.299 0.95 1.00
           12    619     177.80 0.006     121.95    0.300     59.00        2.272 0.95 1.00
           12    620     326.81 0.015     121.95    0.300     59.00        1.759 0.95 1.00
           12    621    1963.91 0.148      24.39    0.300     59.00        0.614 0.95 1.00
           12    622     343.75 0.036      91.46    0.300     59.00        1.162 0.95 1.00
           12    623      91.54 0.005     121.95    0.300     59.00        2.382 0.95 1.00
           12    624      92.00 0.015     121.95    0.300     59.00        1.719 0.95 1.00
           12    625     130.30 0.006     121.95    0.150     69.00        1.503 0.95 1.00
           12    626     304.64 0.015     121.95    0.150     69.00        1.177 0.95 1.00
           12    627   24838.83 0.175      18.29    0.150     69.00        2.828 0.95 1.00
           12    628    1748.94 0.037      91.46    0.150     69.00        0.980 0.95 1.00
           12    629     348.58 0.006     121.95    0.150     69.00        1.539 0.95 1.00
           12    630   47443.50 0.201      15.24    0.150     69.00        4.826 0.95 1.00
           12    631    3103.88 0.036      91.46    0.150     69.00        1.156 0.95 1.00
           12    632     679.00 0.015     121.95    0.150     69.00        1.235 0.95 1.00
           12    633     864.42 0.036      91.46    0.150     69.00        0.866 0.95 1.00
           12    634   12934.02 0.209      15.24    0.150     69.00        1.646 0.95 1.00
           12    635     165.64 0.006     121.95    0.150     69.00        1.509 0.95 1.00
           12    636     211.21 0.015     121.95    0.150     69.00        1.162 0.95 1.00
           12    637     108.68 0.006     121.95    0.100     66.00        1.180 0.95 1.00
           12    638   64527.48 0.254       9.15    0.100     66.00        6.203 0.95 1.00
           12    639    1423.40 0.037      91.46    0.100     66.00        0.782 0.95 1.00
           12    640     226.88 0.015     121.95    0.100     66.00        0.923 0.95 1.00
           12    641    2447.36 0.036      91.46    0.100     66.00        0.918 0.95 1.00
           12    642     555.92 0.015     121.95    0.100     66.00        0.975 0.95 1.00
           12    643  113956.66 0.317       9.15    0.100     66.00       10.146 0.95 1.00
           12    644     330.88 0.006     121.95    0.100     66.00        1.218 0.95 1.00
           12    645  163636.56 0.350       9.15    0.100     77.00       13.895 0.95 1.00
           12    646    2210.72 0.036      91.46    0.100     77.00        0.889 0.95 1.00
           12    647     223.16 0.006     121.95    0.100     77.00        1.200 0.95 1.00
           12    648     411.08 0.015     121.95    0.100     77.00        0.952 0.95 1.00
           12    649      37.69 0.006     121.95    0.140     66.00        1.425 0.95 1.00
           12    650      90.27 0.015     121.95    0.140     66.00        1.095 0.95 1.00
           12    651    8282.90 0.180      18.29    0.140     66.00        1.179 0.95 1.00
           12    652     535.53 0.036      91.46    0.140     66.00        0.788 0.95 1.00
           12    653      90.17 0.006     121.95    0.140     66.00        1.435 0.95 1.00
           12    654   14994.86 0.200      18.29    0.140     66.00        1.866 0.95 1.00
           12    655     940.46 0.036      91.46    0.140     66.00        0.847 0.95 1.00
           12    656     199.92 0.015     121.95    0.140     66.00        1.115 0.95 1.00
           12    657    4074.34 0.214      15.24    0.140     66.00        0.685 0.95 1.00
           12    658      31.02 0.006     121.95    0.140     66.00        1.424 0.95 1.00
           12    659     279.46 0.036      91.46    0.140     66.00        0.748 0.95 1.00
           12    660      61.08 0.015     121.95    0.140     66.00        1.089 0.95 1.00
           12    661     128.92 0.015     121.95    0.010     92.00        0.247 0.95 1.00
           12    662     723.96 0.174      18.29    0.010     92.00        0.154 0.95 1.00
           12    663     257.29 0.034      91.46    0.010     92.00        0.194 0.95 1.00
           12    664     983.13 0.001     121.95    0.010     92.00        0.655 0.95 1.00
           12    665     409.81 0.014     121.95    0.010     92.00        0.299 0.95 1.00
           12    666     553.58 0.033      91.46    0.010     92.00        0.242 0.95 1.00
           12    667    6772.84 0.001     121.95    0.010     92.00        1.349 0.95 1.00
           12    668    1018.12 0.146      24.39    0.010     92.00        0.205 0.95 1.00
           12    669      15.00 0.006     121.95    0.100     63.29        1.161 0.95 1.00
           12    670     164.02 0.037      91.46    0.100     63.29        0.597 0.95 1.00
           12    671      28.63 0.016     121.95    0.100     63.29        0.869 0.95 1.00
           12    672    2665.69 0.196      18.29    0.100     63.29        0.507 0.95 1.00
           12    673     315.57 0.036      91.46    0.100     63.29        0.627 0.95 1.00
           12    674    2834.39 0.195      18.29    0.100     63.29        0.528 0.95 1.00
           12    675      34.84 0.006     121.95    0.100     63.29        1.165 0.95 1.00
           12    676      69.06 0.015     121.95    0.100     63.29        0.894 0.95 1.00
           12    677     168.54 0.036      91.46    0.100     74.86        0.602 0.95 1.00
           12    678    4808.52 0.307       9.15    0.100     74.86        0.706 0.95 1.00
           12    679      17.39 0.006     121.95    0.100     74.86        1.162 0.95 1.00
           12    680      31.79 0.016     121.95    0.100     74.86        0.870 0.95 1.00
           13    681    1172.75 0.006     121.95    0.150     69.00        1.594 0.95 1.00
           13    682    2379.82 0.015     121.95    0.150     69.00        1.341 0.95 1.00
           13    683   51549.65 0.115      60.98    0.150     69.00        3.649 0.95 1.00
           13    684   11544.42 0.036      91.46    0.150     69.00        1.602 0.95 1.00
           13    685    9008.83 0.035      91.46    0.150     79.00        1.437 0.95 1.00
           13    686    2872.73 0.015     121.95    0.150     79.00        1.381 0.95 1.00
           13    687    2109.92 0.006     121.95    0.150     79.00        1.674 0.95 1.00
           13    688   31433.51 0.130      24.39    0.150     79.00        2.330 0.95 1.00
           13    689    1194.81 0.035      91.46    0.100     66.00        0.694 0.95 1.00
           13    690  106691.34 0.375       9.15    0.100     66.00        6.209 0.95 1.00
           13    691     369.96 0.015     121.95    0.100     66.00        0.922 0.95 1.00
           13    692     156.17 0.006     121.95    0.100     66.00        1.177 0.95 1.00
           13    693      61.13 0.006     121.95    0.100     66.00        1.166 0.95 1.00
           13    694   90939.08 0.378       9.15    0.100     66.00        5.408 0.95 1.00
           13    695     141.72 0.015     121.95    0.100     66.00        0.898 0.95 1.00
           13    696     834.06 0.037      91.46    0.100     66.00        0.652 0.95 1.00
           13    697      28.40 0.006     121.95    0.100     77.00        1.162 0.95 1.00
           13    698   90540.72 0.454       9.15    0.100     77.00        5.384 0.95 1.00
           13    699     396.81 0.037      91.46    0.100     77.00        0.610 0.95 1.00
           13    700      61.81 0.016     121.95    0.100     77.00        0.871 0.95 1.00
           13    701     855.34 0.015     121.95    0.140     66.00        1.166 0.95 1.00
           13    702     402.83 0.006     121.95    0.140     66.00        1.462 0.95 1.00
           13    703    4367.39 0.036      91.46    0.140     66.00        1.071 0.95 1.00
           13    704   19123.77 0.115      60.98    0.140     66.00        1.749 0.95 1.00
           13    705   12156.07 0.131      24.39    0.140     77.00        1.131 0.95 1.00
           13    706    1067.90 0.006     121.95    0.140     77.00        1.525 0.95 1.00
           13    707    3544.09 0.035      91.46    0.140     77.00        1.014 0.95 1.00
           13    708    1234.61 0.015     121.95    0.140     77.00        1.200 0.95 1.00
           13    709      31.23 0.015     121.95    0.100     63.29        0.884 0.95 1.00
           13    710    2614.54 0.173      18.29    0.100     63.29        0.374 0.95 1.00
           13    711     195.60 0.037      91.46    0.100     63.29        0.589 0.95 1.00
           13    712       7.34 0.007     121.95    0.100     63.29        1.106 0.95 1.00
           13    713      47.36 0.015     121.95    0.100     63.29        0.886 0.95 1.00
           13    714    2925.74 0.265       9.15    0.100     63.29        0.342 0.95 1.00
           13    715     178.42 0.035      91.46    0.100     63.29        0.596 0.95 1.00
           13    716      28.40 0.005     121.95    0.100     63.29        1.227 0.95 1.00
           13    717    4230.14 0.113      60.98    0.100     63.29        0.681 0.95 1.00
           13    718    1033.44 0.036      91.46    0.100     63.29        0.675 0.95 1.00
           13    719     204.04 0.015     121.95    0.100     63.29        0.905 0.95 1.00
           13    720      82.01 0.006     121.95    0.100     63.29        1.169 0.95 1.00
           14    721     208.31 0.072      60.98    0.140     77.00        0.463 0.95 1.00
           14    722     285.15 0.006     121.95    0.140     77.00        1.442 0.95 1.00
           14    723     522.28 0.032      91.46    0.140     77.00        0.766 0.95 1.00
           14    724     352.11 0.015     121.95    0.140     77.00        1.107 0.95 1.00
           14    725     562.60 0.015     121.95    0.140     77.00        1.123 0.95 1.00
           14    726     311.53 0.006     121.95    0.140     77.00        1.444 0.95 1.00
           14    727     711.63 0.072      60.98    0.140     77.00        0.502 0.95 1.00
           14    728    1348.25 0.034      91.46    0.140     77.00        0.810 0.95 1.00
           14    729     456.46 0.070      60.98    0.140     77.00        0.487 0.95 1.00
           14    730     689.36 0.034      91.46    0.140     77.00        0.765 0.95 1.00
           14    731      84.34 0.007     121.95    0.140     77.00        1.361 0.95 1.00
           14    732     231.76 0.015     121.95    0.140     77.00        1.097 0.95 1.00
           14    733     350.98 0.015     121.95    0.140     83.00        1.107 0.95 1.00
           14    734     966.97 0.034      91.46    0.140     83.00        0.784 0.95 1.00
           14    735     265.15 0.005     121.95    0.140     83.00        1.520 0.95 1.00
           14    736     491.16 0.070      60.98    0.140     83.00        0.489 0.95 1.00
           14    737    5042.32 0.084      60.98    0.150     69.00        0.765 0.95 1.00
           14    738     579.98 0.006     121.95    0.150     69.00        1.524 0.95 1.00
           14    739    4014.68 0.034      91.46    0.150     69.00        1.003 0.95 1.00
           14    740    1261.66 0.015     121.95    0.150     69.00        1.217 0.95 1.00
           14    741    6060.24 0.079      60.98    0.150     79.00        0.829 0.95 1.00
           14    742     529.89 0.007     121.95    0.150     79.00        1.454 0.95 1.00
           14    743    1297.02 0.015     121.95    0.150     79.00        1.220 0.95 1.00
           14    744    5347.71 0.035      91.46    0.150     79.00        1.072 0.95 1.00
           14    745    6691.31 0.125      24.39    0.150     69.00        0.640 0.95 1.00
           14    746     889.24 0.015     121.95    0.150     69.00        1.192 0.95 1.00
           14    747    2600.58 0.034      91.46    0.150     69.00        0.919 0.95 1.00
           14    748     441.62 0.006     121.95    0.150     69.00        1.514 0.95 1.00
           14    749     735.49 0.015     121.95    0.140     78.00        1.136 0.95 1.00
           14    750    1685.11 0.033      91.46    0.140     78.00        0.838 0.95 1.00
           14    751     349.81 0.006     121.95    0.140     78.00        1.447 0.95 1.00
           14    752     965.53 0.074      60.98    0.140     78.00        0.516 0.95 1.00
           14    753     137.88 0.007     121.95    0.140     78.00        1.366 0.95 1.00
           14    754     295.93 0.015     121.95    0.140     78.00        1.103 0.95 1.00
           14    755     883.07 0.034      91.46    0.140     78.00        0.778 0.95 1.00
           14    756     518.74 0.073      60.98    0.140     78.00        0.486 0.95 1.00
           14    757     383.99 0.031      91.46    0.140     89.00        0.762 0.95 1.00
           14    758     429.13 0.014     121.95    0.140     89.00        1.136 0.95 1.00
           14    759     813.88 0.005     121.95    0.140     89.00        1.561 0.95 1.00
           14    760     133.82 0.071      60.98    0.140     89.00        0.459 0.95 1.00
           14    761     597.16 0.070      60.98    0.140     85.00        0.497 0.95 1.00
           14    762    1342.94 0.033      91.46    0.140     85.00        0.816 0.95 1.00
           14    763     603.22 0.015     121.95    0.140     85.00        1.126 0.95 1.00
           14    764     451.44 0.005     121.95    0.140     85.00        1.535 0.95 1.00
           14    765     649.59 0.006     121.95    0.100     59.00        1.211 0.95 1.00
           14    766    1298.09 0.015     121.95    0.100     59.00        0.978 0.95 1.00
           14    767    3086.61 0.034      91.46    0.100     59.00        0.789 0.95 1.00
           14    768    2255.80 0.077      60.98    0.100     59.00        0.515 0.95 1.00
           14    769    2504.39 0.075      60.98    0.100     72.00        0.533 0.95 1.00
           14    770    3024.03 0.034      91.46    0.100     72.00        0.785 0.95 1.00
           14    771     537.50 0.006     121.95    0.100     72.00        1.203 0.95 1.00
           14    772     972.96 0.015     121.95    0.100     72.00        0.956 0.95 1.00
           14    773    2331.12 0.006     121.95    0.100     66.00        1.322 0.95 1.00
           14    774    3680.64 0.015     121.95    0.100     66.00        1.124 0.95 1.00
           14    775   49662.12 0.102      60.98    0.100     66.00        2.719 0.95 1.00
           14    776   15047.39 0.036      91.46    0.100     66.00        1.411 0.95 1.00
           14    777    2333.67 0.015     121.95    0.100     77.00        1.044 0.95 1.00
           14    778   11355.45 0.036      91.46    0.100     77.00        1.227 0.95 1.00
           14    779   30168.86 0.097      60.98    0.100     77.00        1.879 0.95 1.00
           14    780    1062.06 0.006     121.95    0.100     77.00        1.240 0.95 1.00
           14    781     828.51 0.006     121.95    0.100     66.00        1.224 0.95 1.00
           14    782    8863.42 0.036      91.46    0.100     66.00        1.099 0.95 1.00
           14    783  102051.10 0.174      18.29    0.100     66.00        4.629 0.95 1.00
           14    784    1936.04 0.015     121.95    0.100     66.00        1.019 0.95 1.00
           14    785      60.76 0.006     121.95    0.100     55.00        1.164 0.95 1.00
           14    786     830.78 0.037      91.46    0.100     55.00        0.631 0.95 1.00
           14    787    3926.93 0.102      60.98    0.100     55.00        0.586 0.95 1.00
           14    788     137.22 0.016     121.95    0.100     55.00        0.876 0.95 1.00
           14    789      23.34 0.006     121.95    0.100     55.00        1.160 0.95 1.00
           14    790    1378.78 0.142      24.39    0.100     55.00        0.274 0.95 1.00
           14    791     186.87 0.036      91.46    0.100     55.00        0.587 0.95 1.00
           14    792      44.41 0.015     121.95    0.100     55.00        0.884 0.95 1.00
           14    793    2260.00 0.156      24.39    0.100     55.00        0.326 0.95 1.00
           14    794     196.78 0.036      91.46    0.100     55.00        0.588 0.95 1.00
           14    795      14.36 0.006     121.95    0.100     55.00        1.159 0.95 1.00
           14    796      39.59 0.015     121.95    0.100     55.00        0.884 0.95 1.00
           14    797    2101.71 0.014     121.95    0.050     83.00        0.742 0.95 1.00
           14    798    1466.19 0.031      91.46    0.050     83.00        0.502 0.95 1.00
           14    799    6613.89 0.004     121.95    0.050     83.00        1.272 0.95 1.00
           14    800     626.01 0.090      60.98    0.050     83.00        0.276 0.95 1.00
           14    801     556.95 0.097      60.98    0.050     77.00        0.266 0.95 1.00
           14    802    1219.97 0.005     121.95    0.050     77.00        0.900 0.95 1.00
           14    803     559.71 0.014     121.95    0.050     77.00        0.639 0.95 1.00
           14    804     669.56 0.032      91.46    0.050     77.00        0.444 0.95 1.00
           14    805     214.99 0.122      24.39    0.010     92.00        0.065 0.95 1.00
           14    806     221.02 0.032      91.46    0.010     92.00        0.169 0.95 1.00
           14    807     273.21 0.014     121.95    0.010     92.00        0.251 0.95 1.00
           14    808   24377.42 0.000     121.95    0.010     92.00        2.277 0.95 1.00
           15    809      95.33 0.002     121.95    0.140     91.00        1.998 0.95 1.00
           15    810      22.46 0.015     121.95    0.140     91.00        1.084 0.95 1.00
           15    811      49.35 0.033      91.46    0.140     91.00        0.731 0.95 1.00
           15    812      67.51 0.118      60.98    0.140     91.00        0.404 0.95 1.00
           15    813     256.18 0.102      60.98    0.140     94.00        0.470 0.95 1.00
           15    814     119.42 0.015     121.95    0.140     94.00        1.112 0.95 1.00
           15    815     822.32 0.001     121.95    0.140     94.00        2.620 0.95 1.00
           15    816     204.38 0.033      91.46    0.140     94.00        0.772 0.95 1.00
           15    817     339.13 0.015     121.95    0.150     79.00        1.211 0.95 1.00
           15    818     755.39 0.034      91.46    0.150     79.00        0.920 0.95 1.00
           15    819    1231.90 0.102      60.98    0.150     79.00        0.696 0.95 1.00
           15    820     176.83 0.005     121.95    0.150     79.00        1.610 0.95 1.00
           15    821    1440.03 0.036      91.46    0.150     69.00        1.046 0.95 1.00
           15    822    5247.89 0.107      60.98    0.150     69.00        1.403 0.95 1.00
[...]
           54   3589    2915.66        31.000         0.048   1000.000   0.020      750.000  0.050    0.000     0.000
           54   3590    7346.08        31.000         0.048   1000.000   0.020      750.000  0.050    0.000     0.000
           54   3591    2678.06        31.000         0.048   1000.000   0.020      750.000  0.050    0.000     0.000
           54   3592    2487.36        31.000         0.048   1000.000   0.020      750.000  0.050    0.000     0.000
           54   3593    1078.10        31.000         0.048   1000.000   0.020      750.000  0.050    0.000     0.000
           54   3594     507.97        31.000         0.048   1000.000   0.020      750.000  0.050    0.000     0.000
           54   3595    3710.76        31.000         0.048   1000.000   0.020      750.000  0.050    0.000     0.000
           54   3596    2449.34        31.000         0.048   1000.000   0.020      750.000  0.050    0.000     0.000
           54   3597    1149.03        31.000         0.048   1000.000   0.020      750.000  0.050    0.000     0.000
           54   3598    1277.59        31.000         0.048   1000.000   0.020      750.000  0.050    0.000     0.000
           54   3599     704.24        31.000         0.048   1000.000   0.020      750.000  0.050    0.000     0.000
           54   3600     214.59        31.000         0.048   1000.000   0.020      750.000  0.050    0.000     0.000
           54   3601      91.01        31.000         0.048   1000.000   0.020      750.000  0.050    0.000     0.000
           54   3602    2405.66        31.000         0.048   1000.000   0.020      750.000  0.050    0.000     0.000
           54   3603     240.61        31.000         0.048   1000.000   0.020      750.000  0.050    0.000     0.000
           54   3604     439.32        31.000         0.048   1000.000   0.020      750.000  0.050    0.000     0.000
           54   3605   14741.85        31.000         0.048   1000.000   0.020      750.000  0.050    0.000     0.000
           54   3606    2066.27        31.000         0.048   1000.000   0.020      750.000  0.050    0.000     0.000
           54   3607     424.90        31.000         0.048   1000.000   0.020      750.000  0.050    0.000     0.000
           54   3608    1034.42        31.000         0.048   1000.000   0.020      750.000  0.050    0.000     0.000
           54   3609    4237.84        31.000         0.048   1000.000   0.020      750.000  0.050    0.000     0.000
           54   3610   20951.51        31.000         0.048   1000.000   0.020      750.000  0.050    0.000     0.000
           54   3611   87240.25        31.000         0.048   1000.000   0.020      750.000  0.050    0.000     0.000
           54   3612    8778.82        31.000         0.048   1000.000   0.020      750.000  0.050    0.000     0.000
           54   3613    1911.71        31.000         0.048   1000.000   0.020      750.000  0.050    0.000     0.000
           54   3614     977.59        31.000         0.048   1000.000   0.020      750.000  0.050    0.000     0.000
           54   3615     838.40        31.000         0.048   1000.000   0.020      750.000  0.050    0.000     0.000
           54   3616      85.15        31.000         0.048   1000.000   0.020      750.000  0.050    0.000     0.000
           54   3617     204.57        31.000         0.048   1000.000   0.020      750.000  0.050    0.000     0.000
           54   3618    4048.61        31.000         0.048   1000.000   0.020      750.000  0.050    0.000     0.000
           54   3619     194.92        31.000         0.048   1000.000   0.020      750.000  0.050    0.000     0.000
           54   3620    2014.82        31.000         0.048   1000.000   0.020      750.000  0.050    0.000     0.000
           54   3621   17219.39        31.000         0.048   1000.000   0.020      750.000  0.050    0.000     0.000
           54   3622     396.76        31.000         0.048   1000.000   0.020      750.000  0.050    0.000     0.000
           54   3623    2385.99        31.000         0.048   1000.000   0.020      750.000  0.050    0.000     0.000
           54   3624     401.74        31.000         0.048   1000.000   0.020      750.000  0.050    0.000     0.000
           54   3625     860.95        31.000         0.048   1000.000   0.020      750.000  0.050    0.000     0.000
           54   3626     183.68        31.000         0.048   1000.000   0.020      750.000  0.050    0.000     0.000
           54   3627    2887.03        31.000         0.048   1000.000   0.020      750.000  0.050    0.000     0.000
           54   3628      63.04        31.000         0.048   1000.000   0.020      750.000  0.050    0.000     0.000
           54   3629      44.12        31.000         0.048   1000.000   0.020      750.000  0.050    0.000     0.000
           54   3630     129.52        31.000         0.048   1000.000   0.020      750.000  0.050    0.000     0.000
           55   3631     670.40        31.000         0.048   1000.000   0.020      750.000  0.050    0.000     0.000
           55   3632    1087.77        31.000         0.048   1000.000   0.020      750.000  0.050    0.000     0.000
           55   3633     174.61        31.000         0.048   1000.000   0.020      750.000  0.050    0.000     0.000
           55   3634     699.85        31.000         0.048   1000.000   0.020      750.000  0.050    0.000     0.000
           55   3635     462.31        31.000         0.048   1000.000   0.020      750.000  0.050    0.000     0.000
           55   3636     653.40        31.000         0.048   1000.000   0.020      750.000  0.050    0.000     0.000
           55   3637     280.98        31.000         0.048   1000.000   0.020      750.000  0.050    0.000     0.000
           55   3638     632.46        31.000         0.048   1000.000   0.020      750.000  0.050    0.000     0.000
           55   3639    1557.68        31.000         0.048   1000.000   0.020      750.000  0.050    0.000     0.000
           55   3640     694.92        31.000         0.048   1000.000   0.020      750.000  0.050    0.000     0.000
           55   3641    3253.67        31.000         0.048   1000.000   0.020      750.000  0.050    0.000     0.000
           55   3642    1342.49        31.000         0.048   1000.000   0.020      750.000  0.050    0.000     0.000
           55   3643    1276.04        31.000         0.048   1000.000   0.020      750.000  0.050    0.000     0.000
           55   3644    5497.77        31.000         0.048   1000.000   0.020      750.000  0.050    0.000     0.000
           55   3645    6502.73        31.000         0.048   1000.000   0.020      750.000  0.050    0.000     0.000
           55   3646    1688.14        31.000         0.048   1000.000   0.020      750.000  0.050    0.000     0.000
           55   3647   28763.74        31.000         0.048   1000.000   0.020      750.000  0.050    0.000     0.000
           55   3648   15134.60        31.000         0.048   1000.000   0.020      750.000  0.050    0.000     0.000
           55   3649   41162.40        31.000         0.048   1000.000   0.020      750.000  0.050    0.000     0.000
           55   3650    6215.41        31.000         0.048   1000.000   0.020      750.000  0.050    0.000     0.000
           55   3651    1552.61        31.000         0.048   1000.000   0.020      750.000  0.050    0.000     0.000
           55   3652    1034.74        31.000         0.048   1000.000   0.020      750.000  0.050    0.000     0.000
           55   3653     865.30        31.000         0.048   1000.000   0.020      750.000  0.050    0.000     0.000
           55   3654     202.27        31.000         0.048   1000.000   0.020      750.000  0.050    0.000     0.000
           55   3655     436.05        31.000         0.048   1000.000   0.020      750.000  0.050    0.000     0.000
           55   3656     549.47        31.000         0.048   1000.000   0.020      750.000  0.050    0.000     0.000
           55   3657     647.81        31.000         0.048   1000.000   0.020      750.000  0.050    0.000     0.000
           55   3658     297.37        31.000         0.048   1000.000   0.020      750.000  0.050    0.000     0.000
           55   3659    4481.81        31.000         0.048   1000.000   0.020      750.000  0.050    0.000     0.000
           55   3660     891.60        31.000         0.048   1000.000   0.020      750.000  0.050    0.000     0.000
           55   3661    2062.07        31.000         0.048   1000.000   0.020      750.000  0.050    0.000     0.000
           55   3662    1889.95        31.000         0.048   1000.000   0.020      750.000  0.050    0.000     0.000
           55   3663   24458.99        31.000         0.048   1000.000   0.020      750.000  0.050    0.000     0.000
           55   3664    3670.37        31.000         0.048   1000.000   0.020      750.000  0.050    0.000     0.000
           55   3665    2416.88        31.000         0.048   1000.000   0.020      750.000  0.050    0.000     0.000
           55   3666    4645.15        31.000         0.048   1000.000   0.020      750.000  0.050    0.000     0.000
           55   3667    1916.39        31.000         0.048   1000.000   0.020      750.000  0.050    0.000     0.000
           55   3668    7745.24        31.000         0.048   1000.000   0.020      750.000  0.050    0.000     0.000
           55   3669    1910.52        31.000         0.048   1000.000   0.020      750.000  0.050    0.000     0.000
           55   3670   59362.48        31.000         0.048   1000.000   0.020      750.000  0.050    0.000     0.000
           55   3671   31548.11        31.000         0.048   1000.000   0.020      750.000  0.050    0.000     0.000
           55   3672    3665.54        31.000         0.048   1000.000   0.020      750.000  0.050    0.000     0.000
           55   3673   56597.84        31.000         0.048   1000.000   0.020      750.000  0.050    0.000     0.000
           55   3674    8788.96        31.000         0.048   1000.000   0.020      750.000  0.050    0.000     0.000
           55   3675     507.96        31.000         0.048   1000.000   0.020      750.000  0.050    0.000     0.000
           55   3676     736.90        31.000         0.048   1000.000   0.020      750.000  0.050    0.000     0.000
           55   3677    1690.92        31.000         0.048   1000.000   0.020      750.000  0.050    0.000     0.000
           55   3678   43442.89        31.000         0.048   1000.000   0.020      750.000  0.050    0.000     0.000
           55   3679    1060.57        31.000         0.048   1000.000   0.020      750.000  0.050    0.000     0.000
           55   3680     309.63        31.000         0.048   1000.000   0.020      750.000  0.050    0.000     0.000
           55   3681     168.55        31.000         0.048   1000.000   0.020      750.000  0.050    0.000     0.000
           55   3682    2897.64        31.000         0.048   1000.000   0.020      750.000  0.050    0.000     0.000
           55   3683     870.33        31.000         0.048   1000.000   0.020      750.000  0.050    0.000     0.000
           55   3684    3750.07        31.000         0.048   1000.000   0.020      750.000  0.050    0.000     0.000
           55   3685    2972.83        31.000         0.048   1000.000   0.020      750.000  0.050    0.000     0.000
           55   3686     332.41        31.000         0.048   1000.000   0.020      750.000  0.050    0.000     0.000
           55   3687    1841.72        31.000         0.048   1000.000   0.020      750.000  0.050    0.000     0.000
           55   3688    1363.77        31.000         0.048   1000.000   0.020      750.000  0.050    0.000     0.000
           55   3689    1548.99        31.000         0.048   1000.000   0.020      750.000  0.050    0.000     0.000
           55   3690     769.35        31.000         0.048   1000.000   0.020      750.000  0.050    0.000     0.000
           55   3691     957.77        31.000         0.048   1000.000   0.020      750.000  0.050    0.000     0.000
           55   3692     903.06        31.000         0.048   1000.000   0.020      750.000  0.050    0.000     0.000
           55   3693    2611.35        31.000         0.048   1000.000   0.020      750.000  0.050    0.000     0.000
           55   3694    2419.51        31.000         0.048   1000.000   0.020      750.000  0.050    0.000     0.000
           55   3695    5980.55        31.000         0.048   1000.000   0.020      750.000  0.050    0.000     0.000
           55   3696   15958.10        31.000         0.048   1000.000   0.020      750.000  0.050    0.000     0.000
           55   3697    2370.38        31.000         0.048   1000.000   0.020      750.000  0.050    0.000     0.000
           55   3698   10533.13        31.000         0.048   1000.000   0.020      750.000  0.050    0.000     0.000
           55   3699     150.75        31.000         0.048   1000.000   0.020      750.000  0.050    0.000     0.000
           55   3700     307.66        31.000         0.048   1000.000   0.020      750.000  0.050    0.000     0.000
           55   3701   23434.95        31.000         0.048   1000.000   0.020      750.000  0.050    0.000     0.000
           55   3702     443.99        31.000         0.048   1000.000   0.020      750.000  0.050    0.000     0.000

         Tributary/Main Channel Characteristics
              |--------------Tributary--------------------|---------------------Main---------------------------|
          Sub  Length(km) Slope Width(m) Cond(mm/hr)     N Length(km) Slope Width(m) Depth(m) Cond(mm/hr)     N
            1      122.27 0.005   115.24      0.0000 0.014      24.63 0.000   115.24     2.60      0.0000 0.014
            2      227.73 0.003   119.00      0.0000 0.014     104.74 0.001   119.00     2.65      0.0000 0.014
            3      122.14 0.001   115.99      0.0000 0.014      30.97 0.001  1336.83    13.31      0.0000 0.014
            4       41.73 0.009    45.33      0.0000 0.014      13.89 0.001   221.44     4.01      0.0000 0.014
            5       25.50 0.010    27.37      0.0000 0.014      14.11 0.001   211.86     3.90      0.0000 0.014
            6       66.15 0.003    67.28      0.0000 0.014      46.33 0.003   207.63     3.85      0.0000 0.014
            7      100.63 0.001    92.81      0.0000 0.014      77.12 0.000  1323.15    13.22      0.0000 0.014
            8       75.51 0.016    91.31      0.0000 0.014      12.07 0.000    91.31     2.22      0.0000 0.014
            9       88.82 0.016    83.24      0.0000 0.014      54.69 0.003   132.38     2.85      0.0000 0.014
           10      311.48 0.003   139.56      0.0000 0.014     195.81 0.000   139.56     2.95      0.0000 0.014
           11      135.20 0.003   111.40      0.0000 0.014     131.23 0.001   301.60     4.93      0.0000 0.014
           12      417.55 0.002   215.98      0.0000 0.014      12.48 0.005   273.58     4.62      0.0000 0.014
           13      313.34 0.004   202.25      0.0000 0.014     198.30 0.002   202.25     3.78      0.0000 0.014
           14      107.12 0.001   170.89      0.0000 0.014      71.09 0.000  1313.66    13.16      0.0000 0.014
           15       66.65 0.002    57.30      0.0000 0.014      51.38 0.001   357.31     5.52      0.0000 0.014
           16       89.81 0.002    76.79      0.0000 0.014      85.87 0.000   319.74     5.13      0.0000 0.014
           17        5.12 0.012     4.20      0.0000 0.014       1.21 0.000   534.89     7.23      0.0000 0.014
           18      111.94 0.014   103.78      0.0000 0.014      53.85 0.000   383.96     5.80      0.0000 0.014
           19      101.68 0.002    87.09      0.0000 0.014      82.86 0.000   297.26     4.89      0.0000 0.014
           20       19.07 0.006    21.62      0.0000 0.014      13.26 0.000   299.52     4.91      0.0000 0.014
           21      139.11 0.003   132.12      0.0000 0.014      52.89 0.001   132.12     2.85      0.0000 0.014
           22       69.19 0.004    48.43      0.0000 0.014      18.85 0.000   351.16     5.46      0.0000 0.014
           23      155.89 0.010   115.38      0.0000 0.014      69.74 0.005   115.38     2.60      0.0000 0.014
           24      146.38 0.011   110.91      0.0000 0.014      70.49 0.000   557.87     7.43      0.0000 0.014
           25       64.35 0.002    50.20      0.0000 0.014      30.67 0.000   305.36     4.97      0.0000 0.014
           26      115.15 0.010    91.26      0.0000 0.014      25.81 0.000   257.10     4.44      0.0000 0.014
           27      274.80 0.005   210.31      0.0000 0.014     166.89 0.002   210.31     3.88      0.0000 0.014
           28        2.89 0.027   118.08      0.0000 0.014      81.94 0.000   797.07     9.43      0.0000 0.014
           29      218.83 0.001   174.55      0.0000 0.014     178.91 0.000   253.09     4.39      0.0000 0.014
           30      122.31 0.011   119.68      0.0000 0.014      35.34 0.001   119.68     2.66      0.0000 0.014
           31      144.18 0.006   129.49      0.0000 0.014      26.40 0.000   188.93     3.61      0.0000 0.014
           32      114.15 0.012   104.66      0.0000 0.014      64.81 0.004   228.57     4.10      0.0000 0.014
           33      165.25 0.001   124.41      0.0000 0.014     158.75 0.000   159.16     3.22      0.0000 0.014
           34       84.47 0.002    82.83      0.0000 0.014       2.69 0.001    82.83     2.09      0.0000 0.014
           35       73.51 0.002    81.81      0.0000 0.014      25.09 0.000   261.11     4.48      0.0000 0.014
           36      174.03 0.001   203.23      0.0000 0.014     127.82 0.000  1215.60    12.49      0.0000 0.014
           37      110.15 0.007   116.09      0.0000 0.014      67.59 0.003   237.76     4.21      0.0000 0.014
           38      208.90 0.001   122.89      0.0000 0.014     119.66 0.001   122.89     2.71      0.0000 0.014
           39      119.52 0.008   141.26      0.0000 0.014      40.32 0.002   141.26     2.97      0.0000 0.014
           40       29.22 0.007    22.35      0.0000 0.014      19.61 0.002   110.14     2.52      0.0000 0.014
           41       86.16 0.004    98.92      0.0000 0.014      14.58 0.000    98.92     2.35      0.0000 0.014
           42      130.91 0.001   125.19      0.0000 0.014      89.73 0.000   889.83    10.15      0.0000 0.014
           43      114.09 0.004   105.05      0.0000 0.014       5.24 0.000   904.91    10.26      0.0000 0.014
           44      144.99 0.006   105.44      0.0000 0.014      41.71 0.004   105.44     2.45      0.0000 0.014
           45      167.69 0.004   104.83      0.0000 0.014      34.49 0.000   104.83     2.44      0.0000 0.014
           46       49.74 0.009    52.12      0.0000 0.014      10.19 0.000   936.40    10.50      0.0000 0.014
           47      135.81 0.002    92.97      0.0000 0.014      69.35 0.000   917.10    10.35      0.0000 0.014
           48      152.18 0.003   121.15      0.0000 0.014     141.57 0.001   167.35     3.33      0.0000 0.014
           49       56.86 0.001    71.85      0.0000 0.014      26.82 0.000  1178.21    12.24      0.0000 0.014
           50      137.58 0.001   160.76      0.0000 0.014      82.64 0.000  1171.52    12.19      0.0000 0.014
           51      115.39 0.001   156.55      0.0000 0.014      23.94 0.001  1125.08    11.87      0.0000 0.014
           52      185.77 0.001   140.72      0.0000 0.014      70.69 0.000   234.06     4.17      0.0000 0.014
           53      234.47 0.002   272.62      0.0000 0.014     112.33 0.000  1099.67    11.69      0.0000 0.014
           54      206.08 0.001   139.11      0.0000 0.014      34.68 0.000   139.11     2.94      0.0000 0.014
           55      145.71 0.003   205.90      0.0000 0.014     112.92 0.000   980.71    10.83      0.0000 0.014
